*Heading
** Job name: PlateTest Model name: Model-1
** Generated by: Abaqus/CAE 6.13-4
*Preprint, echo=NO, model=NO, history=NO, contact=NO
**
** PARTS
**
*Part, name=Part-4
*Node
      1,           0.,          25.
      2,          50.,          25.
      3,          50.,         100.
      4,           0.,         100.
      5,           0.,           0.
      6,          50.,           0.
      7,         100.,           0.
      8,         100.,         100.
      9,   2.00332403,          25.
     10,   3.94191647,          25.
     11,   5.81786871,          25.
     12,   7.63320494,          25.
     13,     9.389884,          25.
     14,   11.0898008,          25.
     15,   12.7347898,          25.
     16,   14.3266258,          25.
     17,   15.8670263,          25.
     18,   17.3576527,          25.
     19,   18.8001156,          25.
     20,   20.1959686,          25.
** ... 40965 like lines cut
*Element, type=CPE6M
   1,   644,     9,    10, 10329, 10330, 10331
   2,   751,   607,   644, 10332, 10333, 10334
   3,   652,   176,   647, 10335, 10336, 10337
   4,  1694,   173,  1059, 10338, 10339, 10340
   5,  2310,  2289,  2280, 10341, 10342, 10343
   6,  2316,  2293,  2315, 10344, 10345, 10346
   7,  2338,  2297,   512, 10347, 10348, 10349
   8,  2300,  2299,   517, 10350, 10351, 10352
   9,  2320,  2302,  2301, 10353, 10354, 10355
  10,  2295,  2292,   159, 10356, 10357, 10358
  11,  2302,  2295,   161, 10359, 10360, 10361
  12,   634,    13,   631, 10362, 10363, 10364
  13,   631,    14,   627, 10365, 10366, 10367
  14,  1392,  1174,  1297, 10368, 10369, 10370
  15,  1691,  1510,  1506, 10371, 10372, 10373
  16,  2305,  2252,  2270, 10374, 10375, 10376
  17,  2327,  2276,  2308, 10377, 10378, 10379
  18,  2331,  2326,  2317, 10380, 10381, 10382
  19,  2347,  2324,  2339, 10383, 10384, 10385
  20,  2346,  2340,  2313, 10386, 10387, 10388
** ... 20310 like lines cut
*Nset, nset=Set-1
     1,     2,     3,     4,     5,     6,     9,    10,    11,    12,    13,    14,    15,    16,    17,    18
    19,    20,    21,    22,    23,    24,    25,    26,    27,    28,    29,    30,    31,    32,    33,    34
    35,    36,    37,    38,    39,    40,    41,    42,    43,    44,    45,    46,    47,    48,    49,    50
    51,    52,    53,    54,    55,    56,    57,    58,    59,    60,    61,    62,    63,    64,    65,    66
    67,    68,    69,    70,    71,    72,    73,    74,    75,    76,    77,    78,    79,    80,    81,    82
    83,    84,    85,    86,    87,    88,    89,    90,    91,    92,    93,    94,    95,    96,    97,    98
    99,   100,   101,   102,   103,   104,   105,   106,   107,   108,   109,   110,   111,   112,   113,   114
   115,   116,   117,   118,   119,   120,   121,   122,   123,   124,   125,   126,   127,   128,   129,   130
   131,   132,   133,   134,   135,   136,   137,   138,   139,   140,   141,   142,   143,   144,   145,   146
   147,   148,   149,   150,   151,   152,   153,   154,   155,   156,   157,   158,   159,   160,   161,   162
   163,   164,   165,   166,   167,   168,   169,   170,   171,   172,   173,   174,   175,   176,   177,   178
   179,   180,   181,   182,   183,   184,   185,   186,   187,   188,   189,   190,   191,   192,   193,   194
   195,   196,   197,   198,   199,   200,   201,   202,   203,   204,   205,   206,   207,   208,   209,   210
   211,   212,   213,   214,   215,   216,   217,   218,   219,   220,   221,   222,   223,   224,   225,   226
   227,   228,   229,   230,   231,   232,   233,   234,   235,   236,   237,   238,   239,   240,   241,   242
   243,   244,   245,   246,   247,   248,   249,   250,   488,   489,   490,   491,   492,   493,   494,   495
   496,   497,   498,   499,   500,   501,   502,   503,   504,   505,   506,   507,   508,   509,   510,   511
   512,   513,   514,   515,   516,   517,   518,   519,   520,   521,   522,   523,   524,   525,   526,   527
   528,   529,   530,   531,   532,   533,   534,   535,   536,   537,   538,   539,   540,   541,   542,   543
   544,   545,   546,   547,   548,   549,   550,   551,   552,   553,   554,   555,   556,   557,   558,   559
** ... 665 like lines cut
*Elset, elset=Set-1, generate
    1,  5377,     1
*Nset, nset=Set-2
     2,     3,     6,     7,     8,    58,    59,    60,    61,    62,    63,    64,    65,    66,    67,    68
    69,    70,    71,    72,    73,    74,    75,    76,    77,    78,    79,    80,    81,    82,    83,    84
    85,    86,    87,    88,    89,    90,    91,    92,    93,    94,    95,    96,    97,    98,    99,   100
   101,   102,   103,   104,   105,   106,   107,   108,   109,   110,   111,   112,   113,   114,   115,   116
   117,   118,   119,   120,   121,   122,   123,   124,   125,   126,   127,   128,   129,   130,   131,   132
   133,   134,   135,   136,   208,   209,   210,   211,   212,   213,   214,   215,   216,   217,   218,   219
   220,   221,   222,   223,   224,   225,   226,   227,   228,   229,   230,   231,   232,   233,   234,   235
   236,   237,   238,   239,   240,   241,   251,   252,   253,   254,   255,   256,   257,   258,   259,   260
   261,   262,   263,   264,   265,   266,   267,   268,   269,   270,   271,   272,   273,   274,   275,   276
   277,   278,   279,   280,   281,   282,   283,   284,   285,   286,   287,   288,   289,   290,   291,   292
   293,   294,   295,   296,   297,   298,   299,   300,   301,   302,   303,   304,   305,   306,   307,   308
   309,   310,   311,   312,   313,   314,   315,   316,   317,   318,   319,   320,   321,   322,   323,   324
   325,   326,   327,   328,   329,   330,   331,   332,   333,   334,   335,   336,   337,   338,   339,   340
   341,   342,   343,   344,   345,   346,   347,   348,   349,   350,   351,   352,   353,   354,   355,   356
   357,   358,   359,   360,   361,   362,   363,   364,   365,   366,   367,   368,   369,   370,   371,   372
   373,   374,   375,   376,   377,   378,   379,   380,   381,   382,   383,   384,   385,   386,   387,   388
   389,   390,   391,   392,   393,   394,   395,   396,   397,   398,   399,   400,   401,   402,   403,   404
   405,   406,   407,   408,   409,   410,   411,   412,   413,   414,   415,   416,   417,   418,   419,   420
   421,   422,   423,   424,   425,   426,   427,   428,   429,   430,   431,   432,   433,   434,   435,   436
   437,   438,   439,   440,   441,   442,   443,   444,   445,   446,   447,   448,   449,   450,   451,   452
** ... 1872 like lines cut
*Elset, elset=Set-2, generate
  5378,  20330,      1
*Nset, nset=Set-5
     1,     2,     5,     6,     9,    10,    11,    12,    13,    14,    15,    16,    17,    18,    19,    20
    21,    22,    23,    24,    25,    26,    27,    28,    29,    30,    31,    32,    33,    34,    35,    36
    37,    38,    39,    40,    41,    42,    43,    44,    45,    46,    47,    48,    49,    50,    51,    52
    53,    54,    55,    56,    57,   184,   185,   186,   187,   188,   189,   190,   191,   192,   193,   194
   195,   196,   197,   198,   199,   200,   201,   202,   203,   204,   205,   206,   207,   208,   209,   210
   211,   212,   213,   214,   215,   216,   217,   218,   219,   220,   221,   222,   223,   224,   225,   226
   227,   228,   229,   230,   231,   232,   233,   234,   235,   236,   237,   238,   239,   240,   241,   242
   243,   244,   245,   246,   247,   248,   249,   250,  2348,  2349,  2350,  2351,  2352,  2353,  2354,  2355
  2356,  2357,  2358,  2359,  2360,  2361,  2362,  2363,  2364,  2365,  2366,  2367,  2368,  2369,  2370,  2371
  2372,  2373,  2374,  2375,  2376,  2377,  2378,  2379,  2380,  2381,  2382,  2383,  2384,  2385,  2386,  2387
  2388,  2389,  2390,  2391,  2392,  2393,  2394,  2395,  2396,  2397,  2398,  2399,  2400,  2401,  2402,  2403
  2404,  2405,  2406,  2407,  2408,  2409,  2410,  2411,  2412,  2413,  2414,  2415,  2416,  2417,  2418,  2419
  2420,  2421,  2422,  2423,  2424,  2425,  2426,  2427,  2428,  2429,  2430,  2431,  2432,  2433,  2434,  2435
  2436,  2437,  2438,  2439,  2440,  2441,  2442,  2443,  2444,  2445,  2446,  2447,  2448,  2449,  2450,  2451
  2452,  2453,  2454,  2455,  2456,  2457,  2458,  2459,  2460,  2461,  2462,  2463,  2464,  2465,  2466,  2467
  2468,  2469,  2470,  2471,  2472,  2473,  2474,  2475,  2476,  2477,  2478,  2479,  2480,  2481,  2482,  2483
  2484,  2485,  2486,  2487,  2488,  2489,  2490,  2491,  2492,  2493,  2494,  2495,  2496,  2497,  2498,  2499
  2500,  2501,  2502,  2503,  2504,  2505,  2506,  2507,  2508,  2509,  2510,  2511,  2512,  2513,  2514,  2515
  2516,  2517,  2518,  2519,  2520,  2521,  2522,  2523,  2524,  2525,  2526,  2527,  2528,  2529,  2530,  2531
  2532,  2533,  2534,  2535,  2536,  2537,  2538,  2539,  2540,  2541,  2542,  2543,  2544,  2545,  2546,  2547
** ... 173 like lines cut
*Elset, elset=Set-5, generate
 3898,  5377,     1
*Nset, nset=Set-6
     1,     2,     3,     4,     9,    10,    11,    12,    13,    14,    15,    16,    17,    18,    19,    20
    21,    22,    23,    24,    25,    26,    27,    28,    29,    30,    31,    32,    33,    34,    35,    36
    37,    38,    39,    40,    41,    42,    43,    44,    45,    46,    47,    48,    49,    50,    51,    52
    53,    54,    55,    56,    57,    58,    59,    60,    61,    62,    63,    64,    65,    66,    67,    68
    69,    70,    71,    72,    73,    74,    75,    76,    77,    78,    79,    80,    81,    82,    83,    84
    85,    86,    87,    88,    89,    90,    91,    92,    93,    94,    95,    96,    97,    98,    99,   100
   101,   102,   103,   104,   105,   106,   107,   108,   109,   110,   111,   112,   113,   114,   115,   116
   117,   118,   119,   120,   121,   122,   123,   124,   125,   126,   127,   128,   129,   130,   131,   132
   133,   134,   135,   136,   137,   138,   139,   140,   141,   142,   143,   144,   145,   146,   147,   148
   149,   150,   151,   152,   153,   154,   155,   156,   157,   158,   159,   160,   161,   162,   163,   164
   165,   166,   167,   168,   169,   170,   171,   172,   173,   174,   175,   176,   177,   178,   179,   180
   181,   182,   183,   488,   489,   490,   491,   492,   493,   494,   495,   496,   497,   498,   499,   500
   501,   502,   503,   504,   505,   506,   507,   508,   509,   510,   511,   512,   513,   514,   515,   516
   517,   518,   519,   520,   521,   522,   523,   524,   525,   526,   527,   528,   529,   530,   531,   532
   533,   534,   535,   536,   537,   538,   539,   540,   541,   542,   543,   544,   545,   546,   547,   548
   549,   550,   551,   552,   553,   554,   555,   556,   557,   558,   559,   560,   561,   562,   563,   564
   565,   566,   567,   568,   569,   570,   571,   572,   573,   574,   575,   576,   577,   578,   579,   580
   581,   582,   583,   584,   585,   586,   587,   588,   589,   590,   591,   592,   593,   594,   595,   596
   597,   598,   599,   600,   601,   602,   603,   604,   605,   606,   607,   608,   609,   610,   611,   612
   613,   614,   615,   616,   617,   618,   619,   620,   621,   622,   623,   624,   625,   626,   627,   628
** ... 479 like lines cut
*Elset, elset=Set-6, generate
    1,  3897,     1
** Section: Section-1
*Solid Section, elset=Set-6, material=Steel
,
** Section: Section-3
*Solid Section, elset=Set-5, material=Steel3
,
** Section: Section-2
*Solid Section, elset=Set-2, material=Steel2
,
*End Part
**  
**
** ASSEMBLY
**
*Assembly, name=Assembly
**  
*Instance, name=Part-4-1, part=Part-4
*End Instance
**  
*Nset, nset=Set-11, instance=Part-4-1
     5,     6,     7,   184,   185,   186,   187,   188,   189,   190,   191,   192,   193,   194,   195,   196
   197,   198,   199,   200,   201,   202,   203,   204,   205,   206,   207,   251,   252,   253,   254,   255
   256,   257,   258,   259,   260,   261,   262,   263,   264,   265,   266,   267,   268,   269,   270,   271
   272,   273,   274,   275,   276,   277,   278,   279,   280,   281,   282,   283,   284,   285,   286,   287
   288,   289,   290,   291,   292,   293,   294,   295,   296,   297,   298,   299,   300,   301,   302,   303
   304,   305,   306,   307,   308,   309,   310,   311,   312,   313,   314,   315,   316,   317,   318,   319
 16270, 16327, 16332, 16554, 16588, 16589, 16654, 16655, 16665, 16680, 16694, 16701, 16714, 16786, 16829, 16871
 16941, 18380, 18402, 18407, 18412, 18416, 18430, 18440, 18441, 19921, 21483, 21491, 21502, 21628, 21633, 22138
 22262, 22265, 22277, 22286, 22301, 22303, 22317, 22327, 22338, 22350, 22360, 22371, 22382, 22393, 22404, 22419
 22429, 22440, 22448, 22462, 22477, 22484, 22495, 22506, 22517, 22535, 22539, 22550, 22568, 22575, 22583, 22597
 22612, 22619, 22633, 22645, 22656, 22666, 22677, 22689, 22699, 22710, 22721, 22734, 22738, 22747, 22761, 22771
 22776, 22788, 22797, 22806, 23282, 26952, 26953, 27278, 27873, 28384, 29226, 30944, 31254, 40527, 40548
*Elset, elset=Set-11, instance=Part-4-1
  3900,  3919,  3921,  4007,  4022,  4023,  4064,  4065,  4072,  4080,  4089,  4094,  4100,  4149,  4178,  4205
  4254,  5265,  5281,  5286,  5290,  5294,  5302,  5307,  5308,  5855,  6402,  6405,  6409,  6452,  6455,  6634
  6695,  6696,  6705,  6711,  6721,  6723,  6731,  6737,  6743,  6749,  6755,  6761,  6767,  6773,  6779,  6787
  6793,  6799,  6803,  6811,  6819,  6823,  6829,  6835,  6841,  6851,  6853,  6859,  6869,  6873,  6877,  6885
  6893,  6897,  6905,  6911,  6917,  6923,  6929,  6935,  6941,  6947,  6953,  6961,  6965,  6971,  6979,  6985
  6989,  6997,  7003,  7009,  7355,  9963,  9964, 10187, 10601, 10937, 11523, 12747, 12981, 19795, 19833
*Nset, nset=Set-12, instance=Part-4-1
     7,     8,   320,   321,   322,   323,   324,   325,   326,   327,   328,   329,   330,   331,   332,   333
   334,   335,   336,   337,   338,   339,   340,   341,   342,   343,   344,   345,   346,   347,   348,   349
   350,   351,   352,   353,   354,   355,   356,   357,   358,   359,   360,   361,   362,   363,   364,   365
   366,   367,   368,   369,   370,   371,   372,   373,   374,   375,   376,   377,   378,   379,   380,   381
   382,   383,   384,   385,   386,   387,   388,   389,   390,   391,   392,   393,   394,   395,   396,   397
   398,   399,   400,   401,   402,   403,   404,   405,   406,   407,   408,   409,   410,   411,   412,   413
   414,   415,   416,   417,   418, 20119, 20204, 20244, 20287, 20459, 20504, 20547, 20591, 20634, 20804, 20845
 20887, 20929, 20973, 21142, 21187, 21229, 21272, 21312, 21484, 21634, 26968, 26970, 26975, 26980, 26984, 26988
 26992, 26995, 26998, 27001, 27006, 27011, 27015, 27019, 27023, 27026, 27029, 27032, 27037, 27041, 27045, 27049
 27053, 27056, 27059, 27062, 27067, 27072, 27076, 27080, 27084, 27091, 27093, 27095, 27097, 27099, 27101, 27103
 27107, 27113, 27119, 27124, 27129, 27133, 27135, 27137, 27139, 27141, 27143, 27145, 27149, 27155, 27161, 27166
 27171, 27175, 27177, 27179, 27181, 27183, 27185, 27187, 27191, 27197, 27203, 27208, 27213, 27217, 27219, 27221
 27223, 27225, 27227, 27229, 27233, 27239, 27245, 27250, 27252
*Elset, elset=Set-12, instance=Part-4-1
  5921,  5952,  5967,  5982,  6042,  6057,  6072,  6087,  6102,  6162,  6177,  6192,  6207,  6222,  6282,  6297
  6312,  6327,  6342,  6402,  6456,  9974,  9976,  9978,  9980,  9982,  9984,  9986,  9988,  9990,  9992,  9994
  9996,  9998, 10000, 10002, 10004, 10006, 10008, 10010, 10012, 10014, 10016, 10018, 10020, 10022, 10024, 10026
 10028, 10030, 10032, 10034, 10038, 10040, 10042, 10044, 10046, 10048, 10050, 10052, 10056, 10060, 10064, 10068
 10072, 10074, 10076, 10078, 10080, 10082, 10084, 10086, 10090, 10094, 10098, 10102, 10106, 10108, 10110, 10112
 10114, 10116, 10118, 10120, 10124, 10128, 10132, 10136, 10140, 10142, 10144, 10146, 10148, 10150, 10152, 10154
 10158, 10162, 10166, 10168
*Nset, nset=Set-13, instance=Part-4-1
     1,     5,   242,   243,   244,   245,   246,   247,   248,   249,   250, 16436, 16721, 16836, 16962, 17149
 17457, 17458, 18375, 18421, 18443
*Elset, elset=Set-3, instance=Part-4-1
 3958, 4105, 4184, 4266, 4386, 4592, 4593, 5259, 5296, 5310
*Nset, nset=Set-14, instance=Part-4-1
     1,     4,   161,   162,   163,   164,   165,   166,   167,   168,   169,   170,   171,   172,   173,   174
   175,   176,   177,   178,   179,   180,   181,   182,   183, 10530, 10533, 10536, 10539, 10982, 11030, 11060
 11067, 11386, 11415, 11443, 11471, 11499, 11528, 11544, 11563, 11577, 12739, 14551, 16104, 16143, 16155, 16161
 16168,
*Elset, elset=Set-14, instance=Part-4-1
   68,   69,   70,   71,  225,  244,  254,  257,  416,  431,  445,  459,  473,  487,  497,  507
  515, 1321, 2590, 3751, 3781, 3789, 3795, 3799
*End Assembly
** 
** MATERIALS
** 
*Material, name=Steel
*Density
 8e-06,
*Elastic
190000., 0.3
*Material, name=Steel2
*Density
 8e-06,
*Elastic
190000., 0.3
*Material, name=Steel3
*Density
 8e-06,
*Elastic
190000., 0.3
** ----------------------------------------------------------------
** 
** STEP: Step-1
** 
*Step, name=Step-1, nlgeom=NO
*Static
1., 1., 1e-05, 1.
** 
** BOUNDARY CONDITIONS
** 
** Name: BC-1 Type: Symmetry/Antisymmetry/Encastre
*Boundary
Set-11, YSYMM
** Name: BC-2 Type: Symmetry/Antisymmetry/Encastre
*Boundary
Set-12, XSYMM
** Name: BC-3 Type: Symmetry/Antisymmetry/Encastre
*Boundary
Set-13, XSYMM
** Name: BC-4 Type: Symmetry/Antisymmetry/Encastre
*Boundary
Set-14, XSYMM
** 
** OUTPUT REQUESTS
** 
*Restart, write, frequency=0
** 
** FIELD OUTPUT: F-Output-1
** 
*Output, field, variable=PRESELECT
** 
** HISTORY OUTPUT: H-Output-1
** 
*Output, history, variable=PRESELECT
*End Step
