*Heading
 this is a test mesh for an Abaqus dynamic simulation of our Kaltoff-Winkler plate problem
** Job name: AbaqusPlateTest Model name: Model-1
** Generated by: Abaqus/CAE 6.12-3
*Preprint, echo=NO, model=NO, history=NO, contact=NO
**
** PARTS
**
*Part, name=Part-4
*Node
1, 50.000000000000, 25.000000000000
2, 100.000000000000, 25.000000000000
3, 100.000000000000, 100.000000000000
4, 50.000000000000, 100.000000000000
5, 0.000000000000, 25.000000000000
6, 0.000000000000, 100.000000000000
7, 0.000000000000, 0.000000000000
8, 100.000000000000, 0.000000000000
9, 58.333332100000, 25.000000000000
10, 66.666664100000, 25.000000000000
11, 75.000000000000, 25.000000000000
12, 83.333335900000, 25.000000000000
13, 91.666664100000, 25.000000000000
14, 100.000000000000, 33.333332100000
15, 100.000000000000, 41.666667900000
16, 100.000000000000, 50.000000000000
17, 100.000000000000, 58.333332100000
18, 100.000000000000, 66.666664100000
19, 100.000000000000, 75.000000000000
20, 100.000000000000, 83.333335900000
** ... 840 like lines cut
*Element, type=CPE3 
1, 1, 9, 170
2, 322, 68, 379
3, 380, 34, 381
4, 370, 314, 382
5, 323, 10, 171
6, 326, 69, 383
7, 384, 385, 386
8, 387, 324, 388
9, 327, 11, 172
10, 330, 70, 389
11, 390, 391, 392
12, 393, 328, 394
13, 331, 12, 173
14, 334, 71, 395
15, 396, 397, 398
16, 399, 332, 400
17, 335, 13, 174
18, 338, 72, 401
19, 402, 403, 404
20, 405, 336, 406
** ... 556 like lines cut
*Element, type=COH2D4
577, 314, 370, 373, 315
578, 372, 366, 369, 373
579, 368, 362, 365, 369
580, 364, 358, 361, 365
581, 360, 354, 357, 361
582, 356, 350, 353, 357
583, 352, 346, 349, 353
584, 348, 342, 345, 349
585, 344, 319, 320, 345
586, 170, 9, 322, 379
587, 1, 170, 382, 314
588, 68, 322, 324, 387
589, 379, 68, 380, 381
590, 34, 380, 413, 371
591, 381, 34, 370, 382
592, 171, 10, 326, 383
593, 323, 171, 388, 324
594, 69, 326, 328, 393
595, 383, 69, 384, 386
596, 385, 384, 420, 419
** ... 304 like lines cut
*Nset, nset=Set-1
1, 4, 5, 6, 27, 28, 29, 30, 31, 32, 33, 34, 35, 36, 37, 38
39, 40, 41, 42, 43, 44, 45, 46, 47, 48, 49, 50, 51, 52, 108, 109
110, 111, 112, 113, 114, 115, 116, 117, 118, 119, 120, 121, 122, 123, 124, 125
126, 127, 128, 129, 130, 131, 132, 133, 134, 135, 136, 137, 138, 139, 140, 141
142, 143, 144, 145, 146, 147
*Elset, elset=Set-1
217, 218, 219, 220, 221, 222, 223, 224, 225, 226, 227, 228, 229, 230, 231, 232
233, 234, 235, 236, 237, 238, 239, 240, 241, 242, 243, 244, 245, 246, 247, 248
249, 250, 251, 252, 253, 254, 255, 256, 257, 258, 259, 260, 261, 262, 263, 264
265, 266, 267, 268, 269, 270, 271, 272, 273, 274, 275, 276, 277, 278, 279, 280
281, 282, 283, 284, 285, 286, 287, 288, 289, 290, 291, 292, 293, 294, 295, 296
297, 298, 299, 300, 301, 302, 303, 304, 305, 306, 307, 308, 309, 310, 311, 312
313, 314, 315, 316, 317, 318, 319, 320, 321, 322, 323, 324, 325, 326, 327, 328
329, 330, 331, 332, 333, 334, 335, 336, 337, 338, 339, 340, 341, 342, 343, 344
345, 346, 347, 348, 349, 350, 351, 352, 353, 354, 355, 356, 357, 358, 359, 360
361, 362, 363, 364, 365, 366, 367, 368, 369, 370, 371, 372, 373, 374, 375, 376
377, 378, 379, 380, 381, 382, 383, 384, 385, 386, 387, 388, 389, 390, 391, 392
393, 394, 395, 396, 397, 398, 399, 400, 401, 402, 403, 404, 405, 406, 407, 408
409, 410, 411, 412, 413, 414, 415, 416, 417, 418, 419, 420, 421, 422, 423, 424
425, 426, 427, 428, 429, 430, 431, 432
*Nset, nset=Set-2
1, 2, 3, 4, 9, 10, 11, 12, 13, 14, 15, 16, 17, 18, 19, 20
21, 22, 23, 24, 25, 26, 27, 28, 29, 30, 31, 32, 33, 34, 68, 69
70, 71, 72, 73, 74, 75, 76, 77, 78, 79, 80, 81, 82, 83, 84, 85
86, 87, 88, 89, 90, 91, 92, 93, 94, 95, 96, 97, 98, 99, 100, 101
102, 103, 104, 105, 106, 107
*Elset, elset=Set-2
1, 2, 3, 4, 5, 6, 7, 8, 9, 10, 11, 12, 13, 14, 15, 16
17, 18, 19, 20, 21, 22, 23, 24, 25, 26, 27, 28, 29, 30, 31, 32
33, 34, 35, 36, 37, 38, 39, 40, 41, 42, 43, 44, 45, 46, 47, 48
49, 50, 51, 52, 53, 54, 55, 56, 57, 58, 59, 60, 61, 62, 63, 64
65, 66, 67, 68, 69, 70, 71, 72, 73, 74, 75, 76, 77, 78, 79, 80
81, 82, 83, 84, 85, 86, 87, 88, 89, 90, 91, 92, 93, 94, 95, 96
97, 98, 99, 100, 101, 102, 103, 104, 105, 106, 107, 108, 109, 110, 111, 112
113, 114, 115, 116, 117, 118, 119, 120, 121, 122, 123, 124, 125, 126, 127, 128
129, 130, 131, 132, 133, 134, 135, 136, 137, 138, 139, 140, 141, 142, 143, 144
145, 146, 147, 148, 149, 150, 151, 152, 153, 154, 155, 156, 157, 158, 159, 160
161, 162, 163, 164, 165, 166, 167, 168, 169, 170, 171, 172, 173, 174, 175, 176
177, 178, 179, 180, 181, 182, 183, 184, 185, 186, 187, 188, 189, 190, 191, 192
193, 194, 195, 196, 197, 198, 199, 200, 201, 202, 203, 204, 205, 206, 207, 208
209, 210, 211, 212, 213, 214, 215, 216
*Nset, nset=Set-3
1, 2, 5, 7, 8, 9, 10, 11, 12, 13, 35, 36, 37, 38, 39, 53
54, 55, 56, 57, 58, 59, 60, 61, 62, 63, 64, 65, 66, 67, 148, 149
150, 151, 152, 153, 154, 155, 156, 157, 158, 159, 160, 161, 162, 163, 164, 165
166, 167, 168, 169
*Elset, elset=Set-3
433, 434, 435, 436, 437, 438, 439, 440, 441, 442, 443, 444, 445, 446, 447, 448
449, 450, 451, 452, 453, 454, 455, 456, 457, 458, 459, 460, 461, 462, 463, 464
465, 466, 467, 468, 469, 470, 471, 472, 473, 474, 475, 476, 477, 478, 479, 480
481, 482, 483, 484, 485, 486, 487, 488, 489, 490, 491, 492, 493, 494, 495, 496
497, 498, 499, 500, 501, 502, 503, 504, 505, 506, 507, 508, 509, 510, 511, 512
513, 514, 515, 516, 517, 518, 519, 520, 521, 522, 523, 524, 525, 526, 527, 528
529, 530, 531, 532, 533, 534, 535, 536, 537, 538, 539, 540, 541, 542, 543, 544
545, 546, 547, 548, 549, 550, 551, 552, 553, 554, 555, 556, 557, 558, 559, 560
561, 562, 563, 564, 565, 566, 567, 568, 569, 570, 571, 572, 573, 574, 575, 576
** Section: Section-2
*Solid Section, elset=Set-2, material=Material-2
,
** Section: Section-1
*Solid Section, elset=Set-1, material=Material-1
,
** Section: Section-3
*Solid Section, elset=Set-3, material=Material-3
,
*Elset, elset=CZMSet-1
577, 578, 579, 580, 581, 582, 583, 584, 585, 586, 587, 588, 589, 590, 591, 592
593, 594, 595, 596, 597, 598, 599, 600, 601, 602, 603, 604, 605, 606, 607, 608
609, 610, 611, 612, 613, 614, 615, 616, 617, 618, 619, 620, 621, 622, 623, 624
625, 626, 627, 628, 629, 630, 631, 632, 633, 634, 635, 636, 637, 638, 639, 640
641, 642, 643, 644, 645, 646, 647, 648, 649, 650, 651, 652, 653, 654, 655, 656
657, 658, 659, 660, 661, 662, 663, 664, 665, 666, 667, 668, 669, 670, 671, 672
673, 674, 675, 676, 677, 678, 679, 680, 681, 682, 683, 684, 685, 686, 687, 688
689, 690, 691, 692, 693, 694, 695, 696, 697, 698, 699, 700, 701, 702, 703, 704
705, 706, 707, 708, 709, 710, 711, 712, 713, 714, 715, 716, 717, 718, 719, 720
721, 722, 723, 724, 725, 726, 727, 728, 729, 730, 731, 732, 733, 734, 735, 736
737, 738, 739, 740, 741, 742, 743, 744, 745, 746, 747, 748, 749, 750, 751, 752
753, 754, 755, 756, 757, 758, 759, 760, 761, 762, 763, 764, 765, 766, 767, 768
769, 770, 771, 772, 773, 774, 775, 776, 777, 778, 779, 780, 781, 782, 783, 784
785, 786, 787, 788, 789, 790, 791, 792, 793, 794, 795, 796, 797, 798, 799, 800
801, 802, 803, 804, 805, 806, 807, 808, 809, 810, 811, 812, 813, 814, 815, 816
817, 818, 819, 820, 821, 822, 823, 824, 825, 826, 827, 828, 829, 830, 831, 832
833, 834, 835, 836, 837, 838, 839, 840, 841, 842, 843, 844, 845, 846, 847, 848
849, 850, 851, 852, 853, 854, 855, 856, 857, 858, 859, 860, 861, 862, 863, 864
865, 866, 867, 868, 869, 870, 871, 872, 873, 874, 875, 876, 877, 878, 879, 880
881, 882, 883, 884, 885, 886, 887, 888, 889, 890, 891, 892, 893, 894, 895, 896
897, 898, 899, 900
*Cohesive Section, elset=CZMSet-1, material=CZMMaterial-1, response=TRACTION SEPARATION, thickness=SPECIFIED
1., 1.
*End Part
**  
**
** ASSEMBLY
**
*Assembly, name=Assembly
**  
*Instance, name=Part-4-1, part=Part-4
*End Instance
**  
*Nset, nset=BC2, instance=Part-4-1
2, 317, 3, 855, 14, 408, 460, 461, 15, 463, 516, 517, 16, 519, 572, 573
17, 575, 628, 629, 18, 631, 684, 685, 19, 687, 740, 741, 20, 743, 796, 797
21, 799, 852, 853
*Elset, elset=BC2, instance=Part-4-1
6, 12, 18, 24, 30, 36, 42, 48, 54
*Nset, nset=BC3, instance=Part-4-1
7, 7, 8, 8, 53, 53, 53, 53, 54, 54, 54, 54, 55, 55, 55, 55
56, 56, 56, 56, 57, 57, 57, 57, 58, 58, 58, 58, 59, 59, 59, 59
60, 60, 60, 60, 61, 61, 61, 61, 62, 62, 62, 62, 63, 63, 63, 63
*Elset, elset=BC3, instance=Part-4-1
109, 110, 111, 112, 113, 114, 115, 116, 117, 118, 119, 120
*Nset, nset=Set-5, instance=Part-4-1
318, 318, 8, 8, 64, 64, 64, 64, 65, 65, 65, 65
*Elset, elset=Set-5, instance=Part-4-1
120, 132, 144
*Nset, nset=BC1, instance=Part-4-1
5, 5, 6, 6, 45, 45, 45, 45, 46, 46, 46, 46, 47, 47, 47, 47
48, 48, 48, 48, 49, 49, 49, 49, 50, 50, 50, 50, 51, 51, 51, 51
52, 52, 52, 52
*Elset, elset=BC1, instance=Part-4-1
55, 61, 67, 73, 79, 85, 91, 97, 103
*Nset, nset=Set-4, instance=Part-4-1
321, 321, 7, 7, 66, 66, 66, 66, 67, 67, 67, 67
*Elset, elset=Set-4, instance=Part-4-1
109, 121, 133
*End Assembly
*Amplitude, name=Amp-1
             0.,              0.,              1.,          0.1
** 
** MATERIALS
** 
*Material, name=Material-1
*Density
 8e-06,
*Elastic
29000., 0.3
*Material, name=Material-2
*Density
 8e-06,
*Elastic
29000., 0.3
*Material, name=Material-3
*Density
 8e-06,
*Elastic
29000., 0.3
** 
** BOUNDARY CONDITIONS
** 
** Name: BC-2 Type: Symmetry/Antisymmetry/Encastre
*Material, name=CZMMaterial-1 
*Damage Initiation, criterion=MAXS
1.0e7,1.0e7,1.0e7
*Damage Evolution, type=DISPLACEMENT
 0.2,
*Elastic, type=TRACTION
10000000.,10000000.,10000000.
*Boundary
BC2, XSYMM
** Name: BC-3 Type: Symmetry/Antisymmetry/Encastre
*Boundary
BC3, YSYMM
** Name: BC-5 Type: Symmetry/Antisymmetry/Encastre
*Boundary
Set-5, XSYMM
** ----------------------------------------------------------------
** 
** STEP: Step-1
** 
*Step, name=Step-1, inc=20
*Static, direct
0.1, 1., 
** 
** BOUNDARY CONDITIONS
** 
** BOUNDARY CONDITIONS
** 
** Name: BC-1 Type: Displacement/Rotation
*Boundary, amplitude=Amp-1
BC1, 1, 1, 1.
** Name: BC-4 Type: Displacement/Rotation
*Boundary, amplitude=Amp-1
Set-4, 1, 1, 1.
** 
** OUTPUT REQUESTS
** 
*Restart, write, frequency=0
** 
** FIELD OUTPUT: F-Output-1
** 
*Output, field, variable=PRESELECT
** 
** HISTORY OUTPUT: H-Output-1
** 
*Output, history, variable=PRESELECT
*End Step
